# generated using pymatgen
data_H2C6N4O5
_symmetry_space_group_name_H-M   'P 1'
_cell_length_a   7.64274081
_cell_length_b   39.57747874
_cell_length_c   9.28024452
_cell_angle_alpha   137.98607057
_cell_angle_beta   57.81925270
_cell_angle_gamma   100.07734847
_symmetry_Int_Tables_number   1
_chemical_formula_structural   H2C6N4O5
_chemical_formula_sum   'H8 C24 N16 O20'
_cell_volume   1464.49977864
_cell_formula_units_Z   4
loop_
 _symmetry_equiv_pos_site_id
 _symmetry_equiv_pos_as_xyz
  1  'x, y, z'
loop_
 _atom_site_type_symbol
 _atom_site_label
 _atom_site_symmetry_multiplicity
 _atom_site_fract_x
 _atom_site_fract_y
 _atom_site_fract_z
 _atom_site_occupancy
  C  C0  1  0.75848593  0.59096204  0.27402196  1
  C  C1  1  0.40152350  0.66226408  0.59396826  1
  C  C2  1  0.52805462  0.60814036  0.40651089  1
  C  C3  1  0.86237225  0.62790417  0.32896500  1
  C  C4  1  0.50543706  0.69920836  0.64893988  1
  C  C5  1  0.73585214  0.68203219  0.51646269  1
  C  C6  1  0.42619972  0.06725084  -0.07348154  1
  C  C7  1  0.06923729  0.13855288  0.24646476  1
  C  C8  1  0.19576842  0.08442916  0.05900739  1
  C  C9  1  0.53008605  0.10419297  -0.01853849  1
  C  C10  1  0.17315085  0.17549716  0.30143638  1
  C  C11  1  0.40356594  0.15832099  0.16895919  1
  C  C12  1  0.45220448  0.43637787  0.30586148  1
  C  C13  1  0.09524206  0.50767992  0.62580778  1
  C  C14  1  0.22177318  0.45355620  0.43835041  1
  C  C15  1  0.55609081  0.47332001  0.36080453  1
  C  C16  1  0.19915561  0.54462420  0.68077940  1
  C  C17  1  0.42957070  0.52744802  0.54830221  1
  C  C18  1  1.06213731  0.16937509  0.58746389  1
  C  C19  1  0.70517489  0.24067714  0.90741019  1
  C  C20  1  0.83170601  0.18655342  0.71995282  1
  C  C21  1  1.16602364  0.20631723  0.64240694  1
  C  C22  1  0.80908844  0.27762142  0.96238181  1
  C  C23  1  1.03950353  0.26044524  0.82990462  1
  H  H24  1  0.44544930  0.57965575  0.36507809  1
  H  H25  1  0.41065417  0.74163362  0.79417220  1
  H  H26  1  0.11316309  0.05594455  0.01757460  1
  H  H27  1  0.07836796  0.21792242  0.44666870  1
  H  H28  1  0.13916785  0.42507159  0.39691761  1
  H  H29  1  0.10437273  0.58704946  0.82601172  1
  H  H30  1  0.74910068  0.15806881  0.67852002  1
  H  H31  1  0.71430556  0.32004667  1.10761413  1
  N  N32  1  0.87928078  0.53505718  0.08417117  1
  N  N33  1  0.16697149  0.67975882  0.72878285  1
  N  N34  1  0.83142805  0.72023158  0.57776440  1
  N  N35  1  0.90630474  0.75017589  0.62586345  1
  N  N36  1  0.54699457  0.01134598  -0.26333233  1
  N  N37  1  -0.16531472  0.15604762  0.38127936  1
  N  N38  1  0.49914184  0.19652039  0.23026090  1
  N  N39  1  0.57401853  0.22646469  0.27835995  1
  N  N40  1  0.57299934  0.38047301  0.11601069  1
  N  N41  1  -0.13930995  0.52517465  0.76062237  1
  N  N42  1  0.52514661  0.56564742  0.60960392  1
  N  N43  1  0.60002330  0.59559173  0.65770297  1
  N  N44  1  1.18293217  0.11347023  0.39761310  1
  N  N45  1  0.47062288  0.25817187  1.04222478  1
  N  N46  1  1.13507944  0.29864464  0.89120633  1
  N  N47  1  1.20995613  0.32858895  0.93930538  1
  O  O48  1  1.07473467  0.61242439  0.20775514  1
  O  O49  1  0.77383591  0.50451306  0.04621329  1
  O  O50  1  1.08606939  0.51871199  -0.03716649  1
  O  O51  1  0.05632736  0.72861567  0.89655039  1
  O  O52  1  0.07677496  0.64587470  0.67637023  1
  O  O53  1  0.74244846  0.08871319  -0.13974836  1
  O  O54  1  0.44154971  -0.01919814  -0.30129021  1
  O  O55  1  0.75378318  -0.00499921  -0.38466999  1
  O  O56  1  -0.27595885  0.20490447  0.54904689  1
  O  O57  1  -0.25551125  0.12216350  0.32886673  1
  O  O58  1  0.76845323  0.45784022  0.23959466  1
  O  O59  1  0.46755447  0.34992889  0.07805281  1
  O  O60  1  0.77978794  0.36412782  -0.00532697  1
  O  O61  1  -0.24995409  0.57403151  0.92838991  1
  O  O62  1  -0.22950649  0.49129054  0.70820975  1
  O  O63  1  1.37838606  0.19083744  0.52119707  1
  O  O64  1  1.07748730  0.08292611  0.35965522  1
  O  O65  1  1.38972077  0.09712504  0.27627544  1
  O  O66  1  0.35997874  0.30702872  1.20999232  1
  O  O67  1  0.38042635  0.22428775  0.98981216  1
