# generated using pymatgen
data_H2C6N4O5
_symmetry_space_group_name_H-M   'P 1'
_cell_length_a   35.01679450
_cell_length_b   15.93160799
_cell_length_c   5.15530720
_cell_angle_alpha   44.01579750
_cell_angle_beta   108.65524629
_cell_angle_gamma   79.20773336
_symmetry_Int_Tables_number   1
_chemical_formula_structural   H2C6N4O5
_chemical_formula_sum   'H8 C24 N16 O20'
_cell_volume   1464.49977864
_cell_formula_units_Z   4
loop_
 _symmetry_equiv_pos_site_id
 _symmetry_equiv_pos_as_xyz
  1  'x, y, z'
loop_
 _atom_site_type_symbol
 _atom_site_label
 _atom_site_symmetry_multiplicity
 _atom_site_fract_x
 _atom_site_fract_y
 _atom_site_fract_z
 _atom_site_occupancy
  C  C0  1  0.62938853  0.27148972  0.21061734  1
  C  C1  1  0.61763928  0.11326541  0.27998183  1
  C  C2  1  0.59719445  0.25633726  0.03051566  1
  C  C3  1  0.68202077  0.14357087  0.64019152  1
  C  C4  1  0.67028048  -0.01464701  0.70953395  1
  C  C5  1  0.70247309  0.00050155  0.88963031  1
  C  C6  1  0.37612241  0.15009643  0.49677735  1
  C  C7  1  0.36437317  -0.00812788  0.56614183  1
  C  C8  1  0.34392834  0.13494397  0.31667566  1
  C  C9  1  0.42875465  0.02217758  0.92635153  1
  C  C10  1  0.41701437  -0.13604030  0.99569396  1
  C  C11  1  0.44920698  -0.12089174  1.17579032  1
  C  C12  1  0.89417800  0.87404607  0.70416781  1
  C  C13  1  0.88242875  0.71582176  0.77353229  1
  C  C14  1  0.86198393  0.85889361  0.52406612  1
  C  C15  1  0.94681024  0.74612722  1.13374199  1
  C  C16  1  0.93506995  0.58790934  1.20308442  1
  C  C17  1  0.96726256  0.60305790  1.38318078  1
  C  C18  1  0.55439765  0.26858258  0.17857234  1
  C  C19  1  0.54264840  0.11035826  0.24793683  1
  C  C20  1  0.52220357  0.25343012  -0.00152934  1
  C  C21  1  0.60702988  0.14066373  0.60814652  1
  C  C22  1  0.59528960  -0.01755415  0.67748895  1
  C  C23  1  0.62748221  -0.00240559  0.85758531  1
  H  H24  1  0.55610166  0.35535372  -0.30405776  1
  H  H25  1  0.68719978  -0.12750464  0.91111949  1
  H  H26  1  0.30283555  0.23396043  -0.01789776  1
  H  H27  1  0.43393367  -0.24889793  1.19727949  1
  H  H28  1  0.82089113  0.95791007  0.18949270  1
  H  H29  1  0.95198925  0.47505172  1.40466995  1
  H  H30  1  0.48111078  0.35244657  -0.33610276  1
  H  H31  1  0.61220890  -0.13041178  0.87907449  1
  N  N32  1  0.60625706  0.42083271  -0.06049866  1
  N  N33  1  0.58487415  0.09777963  0.09688346  1
  N  N34  1  0.75448558  -0.12991560  1.31780772  1
  N  N35  1  0.79525012  -0.23212752  1.65332986  1
  N  N36  1  0.35299095  0.29943942  0.22566135  1
  N  N37  1  0.33160804  -0.02361365  0.38304347  1
  N  N38  1  0.50121947  -0.25130889  1.60396772  1
  N  N39  1  0.54198401  -0.35352081  1.93948987  1
  N  N40  1  0.87104654  1.02338907  0.43305181  1
  N  N41  1  0.84966362  0.70033599  0.59043393  1
  N  N42  1  1.01927505  0.47264075  1.81135818  1
  N  N43  1  1.06003959  0.37042883  2.14688033  1
  N  N44  1  0.53126618  0.41792557  -0.09254366  1
  N  N45  1  0.50988327  0.09487249  0.06483846  1
  N  N46  1  0.67949470  -0.13282274  1.28576272  1
  N  N47  1  0.72025924  -0.23503466  1.62128486  1
  O  O48  1  0.71198968  0.15646904  0.80893833  1
  O  O49  1  0.55876403  0.52969058  -0.44224722  1
  O  O50  1  0.63435245  0.43720355  0.09400852  1
  O  O51  1  0.60405241  -0.03197757  0.32711818  1
  O  O52  1  0.53763051  0.21426668  -0.29004770  1
  O  O53  1  0.45872357  0.03507575  1.09509833  1
  O  O54  1  0.30549792  0.40829729  -0.15608721  1
  O  O55  1  0.38108634  0.31581026  0.38016853  1
  O  O56  1  0.35078629  -0.15337086  0.61327819  1
  O  O57  1  0.28436439  0.09287340  -0.00388770  1
  O  O58  1  0.97677916  0.75902539  1.30248879  1
  O  O59  1  0.82355351  1.13224694  0.05130325  1
  O  O60  1  0.89914192  1.03975990  0.58755899  1
  O  O61  1  0.86884188  0.57057878  0.82066865  1
  O  O62  1  0.80241998  0.81682304  0.20350276  1
  O  O63  1  0.63699880  0.15356190  0.77689333  1
  O  O64  1  0.48377315  0.52678344  -0.47429222  1
  O  O65  1  0.55936157  0.43429641  0.06196352  1
  O  O66  1  0.52906152  -0.03488471  0.29507318  1
  O  O67  1  0.46263962  0.21135954  -0.32209270  1
