# generated using pymatgen
data_H2C6N4O5
_symmetry_space_group_name_H-M   'P 1'
_cell_length_a   44.58694938
_cell_length_b   4.64785067
_cell_length_c   7.32842334
_cell_angle_alpha   101.28779511
_cell_angle_beta   95.24334973
_cell_angle_gamma   80.09553204
_symmetry_Int_Tables_number   1
_chemical_formula_structural   H2C6N4O5
_chemical_formula_sum   'H8 C24 N16 O20'
_cell_volume   1464.49977864
_cell_formula_units_Z   4
loop_
 _symmetry_equiv_pos_site_id
 _symmetry_equiv_pos_as_xyz
  1  'x, y, z'
loop_
 _atom_site_type_symbol
 _atom_site_label
 _atom_site_symmetry_multiplicity
 _atom_site_fract_x
 _atom_site_fract_y
 _atom_site_fract_z
 _atom_site_occupancy
  C  C0  1  0.59798594  0.27191934  0.40224450  1
  C  C1  1  0.58083922  -0.14780896  0.19502975  1
  C  C2  1  0.60409623  -0.01837945  0.30347854  1
  C  C3  1  0.56862176  0.43277762  0.39253458  1
  C  C4  1  0.55147155  0.01307244  0.18536599  1
  C  C5  1  0.54536113  0.30335144  0.28412386  1
  C  C6  1  0.23076933  0.98598065  0.66590062  1
  C  C7  1  0.21362262  0.56625235  0.45868587  1
  C  C8  1  0.23687962  0.69568186  0.56713466  1
  C  C9  1  0.20140516  1.14683893  0.65619070  1
  C  C10  1  0.18425494  0.72713376  0.44902211  1
  C  C11  1  0.17814452  1.01741275  0.54777998  1
  C  C12  1  0.03148737  1.13177651  0.96082448  1
  C  C13  1  0.01434066  0.71204821  0.75360973  1
  C  C14  1  0.03759766  0.84147772  0.86205851  1
  C  C15  1  0.00212320  1.29263479  0.95111455  1
  C  C16  1  -0.01502702  0.87292961  0.74394596  1
  C  C17  1  -0.02113743  1.16320861  0.84270383  1
  C  C18  1  0.82025513  0.91583686  0.52564366  1
  C  C19  1  0.80310842  0.49610856  0.31842891  1
  C  C20  1  0.82636542  0.62553807  0.42687769  1
  C  C21  1  0.79089096  1.07669514  0.51593373  1
  C  C22  1  0.77374074  0.65698996  0.30876515  1
  C  C23  1  0.76763032  0.94726896  0.40752301  1
  H  H24  1  0.62691548  -0.14567706  0.31008548  1
  H  H25  1  0.53292960  -0.08261114  0.10182212  1
  H  H26  1  0.25969888  0.56838426  0.57374160  1
  H  H27  1  0.16571299  0.63145017  0.36547824  1
  H  H28  1  0.06041692  0.71418011  0.86866545  1
  H  H29  1  -0.03356896  0.77724602  0.66040210  1
  H  H30  1  0.84918468  0.49824046  0.43348463  1
  H  H31  1  0.75519880  0.56130637  0.22522128  1
  N  N32  1  0.62271050  0.39265012  0.51088776  1
  N  N33  1  0.58705388  -0.44326482  0.09440708  1
  N  N34  1  0.51583807  0.45419143  0.27001185  1
  N  N35  1  0.49269802  0.57236390  0.25896718  1
  N  N36  1  0.25549390  1.10671143  0.77454388  1
  N  N37  1  0.21983728  0.27079649  0.35806321  1
  N  N38  1  0.14862146  1.16825274  0.53366797  1
  N  N39  1  0.12548142  1.28642521  0.52262330  1
  N  N40  1  0.05621194  1.25250729  1.06946773  1
  N  N41  1  0.02055532  0.41659235  0.65298706  1
  N  N42  1  -0.05066050  1.31404860  0.82859183  1
  N  N43  1  -0.07380054  1.43222106  0.81754716  1
  N  N44  1  0.84497970  1.03656764  0.63428691  1
  N  N45  1  0.80932308  0.20065270  0.21780624  1
  N  N46  1  0.73810726  1.09810895  0.39341101  1
  N  N47  1  0.71496722  1.21628141  0.38236634  1
  O  O48  1  0.56278139  0.70055394  0.48311526  1
  O  O49  1  0.64837566  0.23405605  0.51226854  1
  O  O50  1  0.61778107  0.65256406  0.60058047  1
  O  O51  1  0.56580731  -0.55538592  -0.00237054  1
  O  O52  1  0.61362696  -0.58411315  0.10495795  1
  O  O53  1  0.19556478  1.41461525  0.74677138  1
  O  O54  1  0.28115905  0.94811736  0.77592466  1
  O  O55  1  0.25056446  1.36662538  0.86423659  1
  O  O56  1  0.19859070  0.15867540  0.26128558  1
  O  O57  1  0.24641036  0.12994816  0.36861407  1
  O  O58  1  -0.00371718  1.56041111  1.04169524  1
  O  O59  1  0.08187709  1.09391322  1.07084852  1
  O  O60  1  0.05128251  1.51242123  1.15916045  1
  O  O61  1  -0.00069126  0.30447125  0.55620943  1
  O  O62  1  0.04712840  0.27574402  0.66353793  1
  O  O63  1  0.78505058  1.34447146  0.60651442  1
  O  O64  1  0.87064485  0.87797357  0.63566770  1
  O  O65  1  0.84005026  1.29648158  0.72397963  1
  O  O66  1  0.78807650  0.08853160  0.12102861  1
  O  O67  1  0.83589616  0.05980437  0.22835711  1
