# generated using pymatgen
data_H2C6N4O5
_symmetry_space_group_name_H-M   'P 1'
_cell_length_a   46.23421898
_cell_length_b   5.87897875
_cell_length_c   7.25189050
_cell_angle_alpha   63.55240582
_cell_angle_beta   68.57417442
_cell_angle_gamma   102.41584389
_symmetry_Int_Tables_number   1
_chemical_formula_structural   H2C6N4O5
_chemical_formula_sum   'H8 C24 N16 O20'
_cell_volume   1464.49977864
_cell_formula_units_Z   4
loop_
 _symmetry_equiv_pos_site_id
 _symmetry_equiv_pos_as_xyz
  1  'x, y, z'
loop_
 _atom_site_type_symbol
 _atom_site_label
 _atom_site_symmetry_multiplicity
 _atom_site_fract_x
 _atom_site_fract_y
 _atom_site_fract_z
 _atom_site_occupancy
  C  C0  1  0.41889060  0.87314860  0.37030294  1
  C  C1  1  0.45511908  0.63257882  0.38863505  1
  C  C2  1  0.42316598  0.63356407  0.49286407  1
  C  C3  1  0.44656851  1.11173570  0.14354923  1
  C  C4  1  0.48279510  0.87118429  0.16183191  1
  C  C5  1  0.47852066  1.11075472  0.03927578  1
  C  C6  1  0.57651730  0.15489132  1.03018891  1
  C  C7  1  0.61274578  -0.08567847  1.04852102  1
  C  C8  1  0.58079268  -0.08469321  1.15275005  1
  C  C9  1  0.60419521  0.39347842  0.80343520  1
  C  C10  1  0.64042180  0.15292701  0.82171788  1
  C  C11  1  0.63614735  0.39249743  0.69916175  1
  C  C12  1  0.15586395  0.98629265  0.54886922  1
  C  C13  1  0.19209243  0.74572287  0.56720133  1
  C  C14  1  0.16013933  0.74670812  0.67143035  1
  C  C15  1  0.18354186  1.22487975  0.32211551  1
  C  C16  1  0.21976845  0.98432834  0.34039819  1
  C  C17  1  0.21549400  1.22389877  0.21784206  1
  C  C18  1  0.85390827  0.51047429  0.75690606  1
  C  C19  1  0.89013674  0.26990450  0.77523817  1
  C  C20  1  0.85818364  0.27088976  0.87946719  1
  C  C21  1  0.88158617  0.74906139  0.53015235  1
  C  C22  1  0.91781276  0.50850998  0.54843502  1
  C  C23  1  0.91353832  0.74808040  0.42587890  1
  H  H24  1  0.40175101  0.44647065  0.66976814  1
  H  H25  1  0.50797984  0.87595743  0.07654368  1
  H  H26  1  0.55937771  -0.27178664  1.32965412  1
  H  H27  1  0.66560654  0.15770014  0.73642965  1
  H  H28  1  0.13872436  0.55961470  0.84833443  1
  H  H29  1  0.24495319  0.98910148  0.25510996  1
  H  H30  1  0.83676867  0.08379633  1.05637126  1
  H  H31  1  0.94299750  0.51328311  0.46314680  1
  N  N32  1  0.38558350  0.86173122  0.48607304  1
  N  N33  1  0.45948531  0.38878119  0.51339051  1
  N  N34  1  0.50678217  1.34260169  -0.18547364  1
  N  N35  1  0.52893140  1.52427070  -0.36163262  1
  N  N36  1  0.54321020  0.14347394  1.14595902  1
  N  N37  1  0.61711201  -0.32947609  1.17327648  1
  N  N38  1  0.66440886  0.62434441  0.47441233  1
  N  N39  1  0.68655810  0.80601342  0.29825335  1
  N  N40  1  0.12255685  0.97487528  0.66463932  1
  N  N41  1  0.19645866  0.50192524  0.69195679  1
  N  N42  1  0.24375551  1.45574574  -0.00690736  1
  N  N43  1  0.26590475  1.63741475  -0.18306634  1
  N  N44  1  0.82060116  0.49905691  0.87267616  1
  N  N45  1  0.89450297  0.02610688  0.89999362  1
  N  N46  1  0.94179983  0.97992738  0.20112948  1
  N  N47  1  0.96394907  1.16159639  0.02497050  1
  O  O48  1  0.44286274  1.33356864  0.02925614  1
  O  O49  1  0.36210013  0.63989970  0.68956485  1
  O  O50  1  0.38113814  1.07405611  0.37968615  1
  O  O51  1  0.48844869  0.39243708  0.41642409  1
  O  O52  1  0.43426350  0.17638801  0.71724674  1
  O  O53  1  0.60048944  0.61531136  0.68914212  1
  O  O54  1  0.51972683  -0.07835758  1.34945083  1
  O  O55  1  0.53876484  0.35579883  1.03957213  1
  O  O56  1  0.64607539  -0.32582020  1.07631006  1
  O  O57  1  0.59189020  -0.54186927  1.37713272  1
  O  O58  1  0.17983609  1.44671269  0.20782243  1
  O  O59  1  0.09907348  0.75304375  0.86813114  1
  O  O60  1  0.11811149  1.18720016  0.55825244  1
  O  O61  1  0.22542204  0.50558113  0.59499037  1
  O  O62  1  0.17123685  0.28953206  0.89581302  1
  O  O63  1  0.87788041  0.97089433  0.41585926  1
  O  O64  1  0.79711780  0.27722539  1.07616797  1
  O  O65  1  0.81615580  0.71138180  0.76628927  1
  O  O66  1  0.92346636  0.02976277  0.80302721  1
  O  O67  1  0.86928116  -0.18628630  1.10384986  1
